Simulation_Workspace/Phase6/results/generator_slg/fault_summary.csv
Fault_location,Fault_branch_sensor,Phase,Fault_enabled,Initial_window_start_s,Initial_window_end_exclusive_s,Initial_samples,Pre_event_current_RMS_A,Initial_current_waveform_RMS_A,Initial_peak_abs_current_A,Initial_phase_voltage_waveform_RMS_V,Full_window_fundamental_current_RMS_A,Fundamental_window_start_s,Fundamental_window_end_exclusive_s,Fundamental_samples,Initial_window_status,Fundamental_window_status
GEN,faultGEN,A,1,0.15,0.17,100,1.27017293001426e-05,7.27163301967909,10.3170826784667,695.629179699623,7.2566700242709,0.171,0.21,39,full_initial_cycle_measured,full_post_fault_DFT_windows_measured
GEN,faultGEN,B,1,0.15,0.17,100,1.27017261088138e-05,2.22289058188157e-05,3.16891581175352e-05,22228.8476363728,2.19996360509893e-05,0.171,0.21,39,full_initial_cycle_measured,full_post_fault_DFT_windows_measured
GEN,faultGEN,C,1,0.15,0.17,100,1.27017249783685e-05,2.19488506481719e-05,3.15341620384089e-05,21948.7861526487,2.19918106096669e-05,0.171,0.21,39,full_initial_cycle_measured,full_post_fault_DFT_windows_measured
